/*--------------------------------*- C++ -*----------------------------------*\
| =========                 |                                                 |
| \\      /  F ield         | OpenFOAM: The Open Source CFD Toolbox           |
|  \\    /   O peration     | Version:  2506                                  |
|   \\  /    A nd           | Website:  www.openfoam.com                      |
|    \\/     M anipulation  |                                                 |
\*---------------------------------------------------------------------------*/
FoamFile
{
    version     2.0;
    format      ascii;
    arch        "LSB;label=32;scalar=64";
    class       polyBoundaryMesh;
    location    "constant/polyMesh";
    object      boundary;
}
// * * * * * * * * * * * * * * * * * * * * * * * * * * * * * * * * * * * * * //

6
(
    leftWall
    {
        type            wall;
        inGroups        1(wall);
        nFaces          0;
        startFace       2194;
    }
    rightWall
    {
        type            wall;
        inGroups        1(wall);
        nFaces          50;
        startFace       2194;
    }
    lowerWall
    {
        type            wall;
        inGroups        1(wall);
        nFaces          31;
        startFace       2244;
    }
    atmosphere
    {
        type            patch;
        nFaces          24;
        startFace       2275;
    }
    defaultFaces
    {
        type            empty;
        inGroups        1(empty);
        nFaces          2268;
        startFace       2299;
    }
    procBoundary0to1
    {
        type            processor;
        inGroups        1(processor);
        nFaces          43;
        startFace       4567;
        matchTolerance  0.0001;
        transform       unknown;
        myProcNo        0;
        neighbProcNo    1;
    }
)

// ************************************************************************* //
